** DCB with a zero-thickness adhesive interface.
*Heading
 3D-DCB delamination with Uinter
** Job name: DCBuinter Model name: DCB-uint
** Generated by: Abaqus/CAE 6.14-1
*Preprint, echo=NO, model=NO, history=NO, contact=NO
**
** PARTS
**
*Part, name="BOTTOM arm"
*Node
      1,         237.,           0.,           0.
      2,         237.,           0.,         12.5
      3,         250.,           0.,         12.5
      4,         250.,           0.,           0.
      5,         237.,         -1.5,         12.5
      6,         250.,         -1.5,         12.5
      7,         250.,         -1.5,           0.
      8,         237.,         -1.5,           0.
      9,         225.,           0.,           0.
     10,         225.,           0.,         12.5
     11,         225.,         -1.5,           0.
     12,         225.,         -1.5,         12.5
     13,           0.,         -1.5,         12.5
     14,           0.,           0.,         12.5
     15,           0.,           0.,           0.
     16,           0.,         -1.5,           0.
     17,         237.,           0.,  0.310051709
     18,         237.,           0.,  0.655220985
     19,         237.,           0.,   1.03948545
     20,         237.,           0.,     1.467273
** ... 60942 like lines cut
*Element, type=C3D8
   1,   126,  1881, 17493,  1737,     1,    17,  1497,    62
   2,  1881,  1882, 17494, 17493,    17,    18,  1498,  1497
   3,  1882,  1883, 17495, 17494,    18,    19,  1499,  1498
   4,  1883,  1884, 17496, 17495,    19,    20,  1500,  1499
   5,  1884,  1885, 17497, 17496,    20,    21,  1501,  1500
   6,  1885,  1886, 17498, 17497,    21,    22,  1502,  1501
   7,  1886,  1887, 17499, 17498,    22,    23,  1503,  1502
   8,  1887,  1888, 17500, 17499,    23,    24,  1504,  1503
   9,  1888,  1889, 17501, 17500,    24,    25,  1505,  1504
  10,  1889,  1890, 17502, 17501,    25,    26,  1506,  1505
  11,  1890,  1891, 17503, 17502,    26,    27,  1507,  1506
  12,  1891,  1892, 17504, 17503,    27,    28,  1508,  1507
  13,  1892,  1893, 17505, 17504,    28,    29,  1509,  1508
  14,  1893,  1894, 17506, 17505,    29,    30,  1510,  1509
  15,  1894,  1895, 17507, 17506,    30,    31,  1511,  1510
  16,  1895,   136,  1809, 17507,    31,     2,    32,  1511
  17,  1737, 17493, 17508,  1738,    62,  1497,  1512,    61
  18, 17493, 17494, 17509, 17508,  1497,  1498,  1513,  1512
  19, 17494, 17495, 17510, 17509,  1498,  1499,  1514,  1513
  20, 17495, 17496, 17511, 17510,  1499,  1500,  1515,  1514
** ... 51980 like lines cut
*Node
  60963,         237.,         -1.5,         12.5
*Nset, nset="BOTTOM arm-RefPt_", internal
60963, 
*Nset, nset=Set-2, generate
     1,  60962,      1
*Elset, elset=Set-2, generate
     1,  52000,      1
*Orientation, name=Ori-1
1., 0., 0., 0., 1., 0.
1, -90.
** Section: LaminateSection
*Solid Section, elset=Set-2, orientation=Ori-1, material=UDLaminate
,
*End Part
**  
*Part, name="TOP arm"
*Node
      1,         237.,          1.5,         12.5
      2,         237.,          1.5,           0.
      3,         225.,          1.5,           0.
      4,         225.,          1.5,         12.5
      5,         237.,           0.,           0.
      6,         225.,           0.,           0.
      7,         225.,           0.,         12.5
      8,         237.,           0.,         12.5
      9,           0.,           0.,         12.5
     10,           0.,           0.,           0.
     11,           0.,          1.5,         12.5
     12,           0.,          1.5,           0.
     13,         250.,          1.5,         12.5
     14,         250.,           0.,         12.5
     15,         250.,           0.,           0.
     16,         250.,          1.5,           0.
     17,         237.,          1.5,   10.9497414
     18,         237.,          1.5,   9.55720615
     19,         237.,          1.5,   8.30634785
     20,         237.,          1.5,   7.18275213
** ... 60942 like lines cut
*Element, type=C3D8
   1,   154,  2217, 17493,  1947,     1,    17,  1497,    76
   2,  2217,  2218, 17494, 17493,    17,    18,  1498,  1497
   3,  2218,  2219, 17495, 17494,    18,    19,  1499,  1498
   4,  2219,  2220, 17496, 17495,    19,    20,  1500,  1499
   5,  2220,  2221, 17497, 17496,    20,    21,  1501,  1500
   6,  2221,  2222, 17498, 17497,    21,    22,  1502,  1501
   7,  2222,  2223, 17499, 17498,    22,    23,  1503,  1502
   8,  2223,  2224, 17500, 17499,    23,    24,  1504,  1503
   9,  2224,  2225, 17501, 17500,    24,    25,  1505,  1504
  10,  2225,  2226, 17502, 17501,    25,    26,  1506,  1505
  11,  2226,  2227, 17503, 17502,    26,    27,  1507,  1506
  12,  2227,  2228, 17504, 17503,    27,    28,  1508,  1507
  13,  2228,  2229, 17505, 17504,    28,    29,  1509,  1508
  14,  2229,  2230, 17506, 17505,    29,    30,  1510,  1509
  15,  2230,  2231, 17507, 17506,    30,    31,  1511,  1510
  16,  2231,   164,  2082, 17507,    31,     2,    32,  1511
  17,  1947, 17493, 17508,  1948,    76,  1497,  1512,    75
  18, 17493, 17494, 17509, 17508,  1497,  1498,  1513,  1512
  19, 17494, 17495, 17510, 17509,  1498,  1499,  1514,  1513
  20, 17495, 17496, 17511, 17510,  1499,  1500,  1515,  1514
** ... 51980 like lines cut
*Node
  60963,         237.,          1.5,         12.5
*Nset, nset="TOP arm-RefPt_", internal
60963, 
*Nset, nset=Set-1, generate
     1,  60962,      1
*Elset, elset=Set-1, generate
     1,  52000,      1
*Orientation, name=Ori-1
1., 0., 0., 0., 1., 0.
1, -90.
** Section: LaminateSection
*Solid Section, elset=Set-1, orientation=Ori-1, material=UDLaminate
,
*End Part
**  
**
** ASSEMBLY
**
*Assembly, name=Assembly
**  
*Instance, name="BOTTOM ARM-1", part="BOTTOM arm"
*End Instance
**  
*Instance, name="TOP ARM-1", part="TOP arm"
*End Instance
**  
*Nset, nset="BOTTOM ARM-1", instance="BOTTOM ARM-1", generate
     1,  60962,      1
*Elset, elset="BOTTOM ARM-1", instance="BOTTOM ARM-1", generate
     1,  52000,      1
*Nset, nset=BotRP, instance="BOTTOM ARM-1"
 5,
*Nset, nset=InitialFront, instance="TOP ARM-1"
   6,   7, 107, 108, 109, 110, 111, 112, 113, 114, 115, 116, 117, 118, 119, 120
 121,
*Elset, elset=InitialFront, instance="TOP ARM-1", generate
 2545,  2576,     1
*Nset, nset=SlaveSurf, instance="TOP ARM-1"
    6,    7,    9,   10,  107,  108,  109,  110,  111,  112,  113,  114,  115,  116,  117,  118
  119,  120,  121,  173,  174,  175,  176,  177,  178,  179,  180,  181,  182,  183,  184,  185
  186,  187,  188,  189,  190,  191,  192,  193,  194,  195,  196,  197,  198,  199,  200,  201
  202,  203,  204,  205,  206,  207,  208,  209,  210,  211,  212,  213,  214,  215,  216,  217
  218,  219,  220,  221,  222,  223,  224,  225,  226,  227,  228,  229,  230,  231,  232,  233
  234,  235,  236,  237,  238,  239,  240,  241,  242,  243,  244,  245,  246,  247,  248,  249
  250,  251,  252,  253,  254,  255,  256,  257,  258,  259,  260,  261,  262,  263,  264,  265
  266,  267,  268,  269,  270,  271,  272,  273,  274,  275,  276,  277,  278,  279,  280,  281
  282,  283,  284,  285,  286,  287,  288,  289,  290,  291,  292,  293,  294,  295,  296,  297
  298,  299,  300,  301,  302,  303,  304,  305,  306,  307,  308,  309,  310,  311,  312,  313
  314,  315,  316,  317,  318,  319,  320,  321,  322,  323,  324,  325,  326,  327,  328,  329
  330,  331,  332,  333,  334,  335,  336,  337,  338,  339,  340,  341,  342,  343,  344,  345
  346,  347,  348,  349,  350,  351,  352,  353,  354,  355,  356,  357,  358,  359,  360,  361
  362,  363,  364,  365,  366,  367,  368,  369,  370,  371,  372,  373,  374,  375,  376,  377
  378,  379,  380,  381,  382,  383,  384,  385,  386,  387,  388,  389,  390,  391,  392,  393
  394,  395,  396,  397,  398,  399,  400,  401,  402,  403,  404,  405,  406,  407,  408,  409
  410,  411,  412,  413,  414,  415,  416,  417,  418,  419,  420,  421,  422,  423,  424,  425
  426,  427,  428,  429,  430,  431,  432,  433,  434,  435,  436,  437,  438,  439,  440,  441
  442,  443,  444,  445,  446,  447,  448,  449,  450,  451,  452,  453,  454,  455,  456,  457
  458,  459,  460,  461,  462,  463,  464,  465,  466,  467,  468,  469,  470,  471,  472,  473
** ... 300 like lines cut
*Elset, elset=SlaveSurf, instance="TOP ARM-1", generate
 2561,  7360,     1
*Nset, nset=SymmPlane, instance="TOP ARM-1"
    7,    8,    9,   14,  122,  123,  124,  125,  126,  127,  128,  129,  130,  131,  132,  133
  134,  135,  136,  173,  174,  175,  176,  177,  178,  179,  180,  181,  182,  183,  184,  185
  186,  187,  188,  189,  190,  191,  192,  193,  194,  195,  196,  197,  198,  199,  200,  201
  202,  203,  204,  205,  206,  207,  208,  209,  210,  211,  212,  213,  214,  215,  216,  217
  218,  219,  220,  221,  222,  223,  224,  225,  226,  227,  228,  229,  230,  231,  232,  233
  234,  235,  236,  237,  238,  239,  240,  241,  242,  243,  244,  245,  246,  247,  248,  249
  250,  251,  252,  253,  254,  255,  256,  257,  258,  259,  260,  261,  262,  263,  264,  265
  266,  267,  268,  269,  270,  271,  272,  273,  274,  275,  276,  277,  278,  279,  280,  281
  282,  283,  284,  285,  286,  287,  288,  289,  290,  291,  292,  293,  294,  295,  296,  297
  298,  299,  300,  301,  302,  303,  304,  305,  306,  307,  308,  309,  310,  311,  312,  313
  314,  315,  316,  317,  318,  319,  320,  321,  322,  323,  324,  325,  326,  327,  328,  329
  330,  331,  332,  333,  334,  335,  336,  337,  338,  339,  340,  341,  342,  343,  344,  345
  346,  347,  348,  349,  350,  351,  352,  353,  354,  355,  356,  357,  358,  359,  360,  361
  362,  363,  364,  365,  366,  367,  368,  369,  370,  371,  372,  373,  374,  375,  376,  377
  378,  379,  380,  381,  382,  383,  384,  385,  386,  387,  388,  389,  390,  391,  392,  393
  394,  395,  396,  397,  398,  399,  400,  401,  402,  403,  404,  405,  406,  407,  408,  409
  410,  411,  412,  413,  414,  415,  416,  417,  418,  419,  420,  421,  422,  423,  424,  425
  426,  427,  428,  429,  430,  431,  432,  433,  434,  435,  436,  437,  438,  439,  440,  441
  442,  443,  444,  445,  446,  447,  448,  449,  450,  451,  452,  453,  454,  455,  456,  457
  458,  459,  460,  461,  462,  463,  464,  465,  466,  467,  468,  469,  470,  471, 1489, 1490
 1491, 1492, 1493, 1494, 1495, 1496
*Nset, nset="TOP ARM-1", instance="TOP ARM-1", generate
     1,  60962,      1
*Elset, elset="TOP ARM-1", instance="TOP ARM-1", generate
     1,  52000,      1
*Nset, nset=TopRP, instance="TOP ARM-1"
 1,
*Nset, nset=s_Set-4, instance="TOP ARM-1"
  1,  2, 17, 18, 19, 20, 21, 22, 23, 24, 25, 26, 27, 28, 29, 30
 31,
*Elset, elset=s_Set-4, instance="TOP ARM-1"
     1,     2,     3,     4,     5,     6,     7,     8,     9,    10,    11,    12,    13,    14,    15,    16
 51841, 51851, 51861, 51871, 51881, 51891, 51901, 51911, 51921, 51931, 51941, 51951, 51961, 51971, 51981, 51991
*Nset, nset=s_Set-5, instance="BOTTOM ARM-1"
  5,  8, 63, 64, 65, 66, 67, 68, 69, 70, 71, 72, 73, 74, 75, 76
 77,
*Elset, elset=s_Set-5, instance="BOTTOM ARM-1"
 1297, 1298, 1299, 1300, 1301, 1302, 1303, 1304, 1305, 1306, 1307, 1308, 1309, 1310, 1311, 1312
 3745, 3746, 3747, 3748, 3749, 3750, 3751, 3752, 3753, 3754, 3755, 3756, 3757, 3758, 3759, 3760
*Nset, nset=s_Set-6, instance="TOP ARM-1"
     1,     2,    13,    16,    17,    18,    19,    20,    21,    22,    23,    24,    25,    26,    27,    28
    29,    30,    31,  1450,  1451,  1452,  1453,  1454,  1455,  1456,  1457,  1458,  1459,  1460,  1461,  1462
  1463,  1464,  1465,  1466,  1467,  1468,  1469,  1470,  1471,  1472,  1473,  1474,  1475,  1476,  1477,  1478
  1479,  1480, 17109, 17110, 17111, 17112, 17113, 17114, 17115, 17116, 17117, 17118, 17119, 17120, 17121, 17122
 17123, 17124, 17125, 17126, 17127, 17128, 17129, 17130, 17131, 17132, 17133, 17134, 17135, 17136, 17137, 17138
 17139, 17140, 17141, 17142, 17143, 17144, 17145, 17146, 17147, 17148, 17149, 17150, 17151, 17152, 17153, 17154
 17155, 17156, 17157, 17158, 17159, 17160, 17161, 17162, 17163, 17164, 17165, 17166, 17167, 17168, 17169, 17170
 17171, 17172, 17173, 17174, 17175, 17176, 17177, 17178, 17179, 17180, 17181, 17182, 17183, 17184, 17185, 17186
 17187, 17188, 17189, 17190, 17191, 17192, 17193, 17194, 17195, 17196, 17197, 17198, 17199, 17200, 17201, 17202
 17203, 17204, 17205, 17206, 17207, 17208, 17209, 17210, 17211, 17212, 17213, 17214, 17215, 17216, 17217, 17218
 17219, 17220, 17221, 17222, 17223, 17224, 17225, 17226, 17227, 17228
*Elset, elset=s_Set-6, instance="TOP ARM-1", generate
 50561,  51991,     10
*Nset, nset=s_Set-7, instance="BOTTOM ARM-1"
    5,    6,    7,    8,   63,   64,   65,   66,   67,   68,   69,   70,   71,   72,   73,   74
   75,   76,   77,   78,   79,   80,   81,   82,   83,   84,   85,   86,   87,   88,   89,   90
   91,   92,   93,   94,   95,   96,   97,   98,   99,  100,  101,  102,  103,  104,  105,  106
  107,  108, 1617, 1618, 1619, 1620, 1621, 1622, 1623, 1624, 1625, 1626, 1627, 1628, 1629, 1630
 1631, 1632, 1633, 1634, 1635, 1636, 1637, 1638, 1639, 1640, 1641, 1642, 1643, 1644, 1645, 1646
 1647, 1648, 1649, 1650, 1651, 1652, 1653, 1654, 1655, 1656, 1657, 1658, 1659, 1660, 1661, 1662
 1663, 1664, 1665, 1666, 1667, 1668, 1669, 1670, 1671, 1672, 1673, 1674, 1675, 1676, 1677, 1678
 1679, 1680, 1681, 1682, 1683, 1684, 1685, 1686, 1687, 1688, 1689, 1690, 1691, 1692, 1693, 1694
 1695, 1696, 1697, 1698, 1699, 1700, 1701, 1702, 1703, 1704, 1705, 1706, 1707, 1708, 1709, 1710
 1711, 1712, 1713, 1714, 1715, 1716, 1717, 1718, 1719, 1720, 1721, 1722, 1723, 1724, 1725, 1726
 1727, 1728, 1729, 1730, 1731, 1732, 1733, 1734, 1735, 1736
*Elset, elset=s_Set-7, instance="BOTTOM ARM-1", generate
 1297,  1440,     1
*Nset, nset=s_Set-13, instance="TOP ARM-1"
  1,  2, 17, 18, 19, 20, 21, 22, 23, 24, 25, 26, 27, 28, 29, 30
 31,
*Elset, elset=s_Set-13, instance="TOP ARM-1"
     1,     2,     3,     4,     5,     6,     7,     8,     9,    10,    11,    12,    13,    14,    15,    16
 51841, 51851, 51861, 51871, 51881, 51891, 51901, 51911, 51921, 51931, 51941, 51951, 51961, 51971, 51981, 51991
*Nset, nset=s_Set-14, instance="BOTTOM ARM-1"
  5,  8, 63, 64, 65, 66, 67, 68, 69, 70, 71, 72, 73, 74, 75, 76
 77,
*Elset, elset=s_Set-14, instance="BOTTOM ARM-1"
 1297, 1298, 1299, 1300, 1301, 1302, 1303, 1304, 1305, 1306, 1307, 1308, 1309, 1310, 1311, 1312
 3745, 3746, 3747, 3748, 3749, 3750, 3751, 3752, 3753, 3754, 3755, 3756, 3757, 3758, 3759, 3760
*Nset, nset=zsymm_surf, instance="BOTTOM ARM-1"
     2,     3,     5,     6,    10,    12,    13,    14,    32,    33,    34,    35,    36,    37,    38,    39
    78,    79,    80,    81,    82,    83,    84,    85,   127,   128,   129,   130,   131,   132,   133,   134
   135,   136,   137,   138,   139,   140,   141,   142,   143,   144,   175,   176,   177,   178,   179,   180
   181,   182,   183,   184,   185,   186,   187,   188,   189,   220,   221,   222,   223,   224,   225,   226
   227,   228,   229,   230,   231,   232,   233,   234,   235,   236,   237,   238,   239,   240,   241,   242
   243,   253,   254,   255,   256,   257,   258,   259,   260,   261,   600,   601,   602,   603,   604,   605
   606,   607,   608,   609,   610,   611,   612,   613,   614,   615,   616,   617,   618,   619,   620,   621
   622,   623,   624,   625,   626,   627,   628,   629,   630,   631,   632,   633,   634,   635,   636,   637
   638,   639,   640,   641,   642,   643,   644,   645,   646,   647,   648,   649,   650,   651,   652,   653
   654,   655,   656,   657,   658,   659,   660,   661,   662,   663,   664,   665,   666,   667,   668,   669
   670,   671,   672,   673,   674,   675,   676,   677,   678,   679,   680,   681,   682,   683,   684,   685
   686,   687,   688,   689,   690,   691,   692,   693,   694,   695,   696,   697,   698,   699,   700,   701
   702,   703,   704,   705,   706,   707,   708,   709,   710,   711,   712,   713,   714,   715,   716,   717
   718,   719,   720,   721,   722,   723,   724,   725,   726,   727,   728,   729,   730,   731,   732,   733
   734,   735,   736,   737,   738,   739,   740,   741,   742,   743,   744,   745,   746,   747,   748,   749
   750,   751,   752,   753,   754,   755,   756,   757,   758,   759,   760,   761,   762,   763,   764,   765
   766,   767,   768,   769,   770,   771,   772,   773,   774,   775,   776,   777,   778,   779,   780,   781
   782,   783,   784,   785,   786,   787,   788,   789,   790,   791,   792,   793,   794,   795,   796,   797
   798,   799,   800,   801,   802,   803,   804,   805,   806,   807,   808,   809,   810,   811,   812,   813
   814,   815,   816,   817,   818,   819,   820,   821,   822,   823,   824,   825,   826,   827,   828,   829
** ... 205 like lines cut
*Nset, nset=zsymm_surf, instance="TOP ARM-1"
     1,     4,     7,     8,     9,    11,    13,    14,    62,    63,    64,    65,    66,    67,    68,    69
    70,    71,    72,    73,    74,    75,    76,   122,   123,   124,   125,   126,   127,   128,   129,   130
   131,   132,   133,   134,   135,   136,   137,   138,   139,   140,   141,   142,   143,   144,   145,   146
   147,   148,   149,   150,   151,   152,   153,   154,   173,   174,   175,   176,   177,   178,   179,   180
   181,   182,   183,   184,   185,   186,   187,   188,   189,   190,   191,   192,   193,   194,   195,   196
   197,   198,   199,   200,   201,   202,   203,   204,   205,   206,   207,   208,   209,   210,   211,   212
   213,   214,   215,   216,   217,   218,   219,   220,   221,   222,   223,   224,   225,   226,   227,   228
   229,   230,   231,   232,   233,   234,   235,   236,   237,   238,   239,   240,   241,   242,   243,   244
   245,   246,   247,   248,   249,   250,   251,   252,   253,   254,   255,   256,   257,   258,   259,   260
   261,   262,   263,   264,   265,   266,   267,   268,   269,   270,   271,   272,   273,   274,   275,   276
   277,   278,   279,   280,   281,   282,   283,   284,   285,   286,   287,   288,   289,   290,   291,   292
   293,   294,   295,   296,   297,   298,   299,   300,   301,   302,   303,   304,   305,   306,   307,   308
   309,   310,   311,   312,   313,   314,   315,   316,   317,   318,   319,   320,   321,   322,   323,   324
   325,   326,   327,   328,   329,   330,   331,   332,   333,   334,   335,   336,   337,   338,   339,   340
   341,   342,   343,   344,   345,   346,   347,   348,   349,   350,   351,   352,   353,   354,   355,   356
   357,   358,   359,   360,   361,   362,   363,   364,   365,   366,   367,   368,   369,   370,   371,   372
   373,   374,   375,   376,   377,   378,   379,   380,   381,   382,   383,   384,   385,   386,   387,   388
   389,   390,   391,   392,   393,   394,   395,   396,   397,   398,   399,   400,   401,   402,   403,   404
   405,   406,   407,   408,   409,   410,   411,   412,   413,   414,   415,   416,   417,   418,   419,   420
   421,   422,   423,   424,   425,   426,   427,   428,   429,   430,   431,   432,   433,   434,   435,   436
** ... 205 like lines cut
*Elset, elset=zsymm_surf, instance="BOTTOM ARM-1"
    16,    32,    48,    64,    80,    96,   112,   128,   144,   160,   176,   192,   208,   224,   240,   256
   272,   288,   304,   320,   336,   352,   368,   384,   400,   416,   432,   448,   464,   480,   496,   512
   528,   544,   560,   576,   592,   608,   624,   640,   656,   672,   688,   704,   720,   736,   752,   768
   784,   800,   816,   832,   848,   864,   880,   896,   912,   928,   944,   960,   976,   992,  1008,  1024
  1040,  1056,  1072,  1088,  1104,  1120,  1136,  1152,  1168,  1184,  1200,  1216,  1232,  1248,  1264,  1280
  1296,  1312,  1328,  1344,  1360,  1376,  1392,  1408,  1424,  1440,  1441,  1457,  1473,  1489,  1505,  1521
  1537,  1553,  1569,  1585,  1601,  1617,  1633,  1649,  1665,  1681,  1697,  1713,  1729,  1745,  1761,  1777
  1793,  1809,  1825,  1841,  1857,  1873,  1889,  1905,  1921,  1937,  1953,  1969,  1985,  2001,  2017,  2033
  2049,  2065,  2081,  2097,  2113,  2129,  2145,  2161,  2177,  2193,  2209,  2225,  2241,  2257,  2273,  2289
  2305,  2321,  2337,  2353,  2369,  2385,  2401,  2417,  2433,  2449,  2465,  2481,  2497,  2513,  2529,  2545
  2561,  2577,  2593,  2609,  2625,  2641,  2657,  2673,  2689,  2705,  2721,  2737,  2753,  2769,  2785,  2801
  2817,  2833,  2849,  2865,  2881,  2897,  2913,  2929,  2945,  2961,  2977,  2993,  3009,  3025,  3041,  3057
  3073,  3089,  3105,  3121,  3137,  3153,  3169,  3185,  3201,  3217,  3233,  3249,  3265,  3281,  3297,  3313
  3329,  3345,  3361,  3377,  3393,  3409,  3425,  3441,  3457,  3473,  3489,  3505,  3521,  3537,  3553,  3569
  3585,  3601,  3617,  3633,  3649,  3665,  3681,  3697,  3713,  3729,  3745,  3761,  3777,  3793,  3809,  3825
  3841,  3857,  3873,  3889,  3905,  3921,  3937,  3953,  3969,  3985,  4001,  4002,  4003,  4004,  4005,  4006
  4007,  4008,  4009,  4010,  4161,  4162,  4163,  4164,  4165,  4166,  4167,  4168,  4169,  4170,  4321,  4322
  4323,  4324,  4325,  4326,  4327,  4328,  4329,  4330,  4481,  4482,  4483,  4484,  4485,  4486,  4487,  4488
  4489,  4490,  4641,  4642,  4643,  4644,  4645,  4646,  4647,  4648,  4649,  4650,  4801,  4802,  4803,  4804
  4805,  4806,  4807,  4808,  4809,  4810,  4961,  4962,  4963,  4964,  4965,  4966,  4967,  4968,  4969,  4970
** ... 184 like lines cut
*Elset, elset=zsymm_surf, instance="TOP ARM-1"
     1,    17,    33,    49,    65,    81,    97,   113,   129,   145,   161,   177,   193,   209,   225,   241
   257,   273,   289,   305,   321,   337,   353,   369,   385,   401,   417,   433,   449,   465,   481,   497
   513,   529,   545,   561,   577,   593,   609,   625,   641,   657,   673,   689,   705,   721,   737,   753
   769,   785,   801,   817,   833,   849,   865,   881,   897,   913,   929,   945,   961,   977,   993,  1009
  1025,  1041,  1057,  1073,  1089,  1105,  1121,  1137,  1153,  1169,  1185,  1201,  1217,  1233,  1249,  1265
  1281,  1297,  1313,  1329,  1345,  1361,  1377,  1393,  1409,  1425,  1441,  1457,  1473,  1489,  1505,  1521
  1537,  1553,  1569,  1585,  1601,  1617,  1633,  1649,  1665,  1681,  1697,  1713,  1729,  1745,  1761,  1777
  1793,  1809,  1825,  1841,  1857,  1873,  1889,  1905,  1921,  1937,  1953,  1969,  1985,  2001,  2017,  2033
  2049,  2065,  2081,  2097,  2113,  2129,  2145,  2161,  2177,  2193,  2209,  2225,  2241,  2257,  2273,  2289
  2305,  2321,  2337,  2353,  2369,  2385,  2401,  2417,  2433,  2449,  2465,  2481,  2497,  2513,  2529,  2545
  2576,  2592,  2608,  2624,  2640,  2656,  2672,  2688,  2704,  2720,  2736,  2752,  2768,  2784,  2800,  2816
  2832,  2848,  2864,  2880,  2896,  2912,  2928,  2944,  2960,  2976,  2992,  3008,  3024,  3040,  3056,  3072
  3088,  3104,  3120,  3136,  3152,  3168,  3184,  3200,  3216,  3232,  3248,  3264,  3280,  3296,  3312,  3328
  3344,  3360,  3376,  3392,  3408,  3424,  3440,  3456,  3472,  3488,  3504,  3520,  3536,  3552,  3568,  3584
  3600,  3616,  3632,  3648,  3664,  3680,  3696,  3712,  3728,  3744,  3760,  3776,  3792,  3808,  3824,  3840
  3856,  3872,  3888,  3904,  3920,  3936,  3952,  3968,  3984,  4000,  4016,  4032,  4048,  4064,  4080,  4096
  4112,  4128,  4144,  4160,  4176,  4192,  4208,  4224,  4240,  4256,  4272,  4288,  4304,  4320,  4336,  4352
  4368,  4384,  4400,  4416,  4432,  4448,  4464,  4480,  4496,  4512,  4528,  4544,  4560,  4576,  4592,  4608
  4624,  4640,  4656,  4672,  4688,  4704,  4720,  4736,  4752,  4768,  4784,  4800,  4816,  4832,  4848,  4864
  4880,  4896,  4912,  4928,  4944,  4960,  4976,  4992,  5008,  5024,  5040,  5056,  5072,  5088,  5104,  5120
** ... 184 like lines cut
*Elset, elset=_bottom_surf_S4, internal, instance="BOTTOM ARM-1", generate
  4010,  52000,     10
*Surface, type=ELEMENT, name=bottom_surf
_bottom_surf_S4, S4
*Elset, elset=_top_surf_S2, internal, instance="TOP ARM-1", generate
 2561,  7360,     1
*Surface, type=ELEMENT, name=top_surf
_top_surf_S2, S2
*Surface, type=NODE, name=s_Set-13_CNS_, internal
s_Set-13, 1.
*Surface, type=NODE, name=s_Set-14_CNS_, internal
s_Set-14, 1.
** Constraint: Constraint-1
*MPC
BEAM, s_Set-13, TopRP
** Constraint: Constraint-2
*MPC
BEAM, s_Set-14, BotRP
*End Assembly
*Amplitude, name=Amp-1
             0.,              1.,              1.,              1.
** 
** MATERIALS
** 
*Material, name=Material-2
*Elastic
135000., 0.3
** 8552/AS4 unidirectional laminate
*Material, name=UDLaminate
*Elastic, type=ENGINEERING CONSTANTS
135000.,10000.,10000.,   0.3,   0.3,   0.4, 5000., 5000.
 5000.,
** 
** INTERACTION PROPERTIES
** 
*Surface Interaction, name=IntProp-1
1.,
*Cohesive Behavior
** 
** BOUNDARY CONDITIONS
** 
** Name: BC-1 Type: Symmetry/Antisymmetry/Encastre
*Boundary
zsymm_surf, ZSYMM
** Name: BC-2 Type: Displacement/Rotation
*Boundary
TopRP, 1, 1
TopRP, 5, 5
** Name: BC-3 Type: Displacement/Rotation
*Boundary
BotRP, 1, 1
BotRP, 5, 5
** 
** INTERACTIONS
** 
** Interaction: Int-1
*Contact Pair, interaction=IntProp-1, small sliding, type=SURFACE TO SURFACE
top_surf, bottom_surf
** ----------------------------------------------------------------
** 
** STEP: Step-1
** 
*Step, name=Step-1, nlgeom=NO, inc=10, solver=ITERATIVE, unsymm=NO
*Static, direct
0.1, 1., 
** 
** BOUNDARY CONDITIONS
** 
** Name: BC-4 Type: Displacement/Rotation
*Boundary, amplitude=Amp-1
TopRP, 2, 2, 1.
** Name: BC-5 Type: Displacement/Rotation
*Boundary, amplitude=Amp-1
BotRP, 2, 2, -1.
** 
** OUTPUT REQUESTS
** 
*Restart, write, frequency=1
** 
** FIELD OUTPUT: F-Output-4
** 
*Output, field, frequency=99999
*Node Output, nset=InitialFront
COORD, U
*Element Output, elset=InitialFront, directions=YES
SDV, 
** 
** FIELD OUTPUT: F-Output-1
** 
*Node Output, nset="TOP ARM-1"
U, 
*Element Output, elset="TOP ARM-1", directions=YES
SDV, 
*Contact Output, nset="TOP ARM-1"
CDISP, CSTRESS,
** 
** FIELD OUTPUT: F-Output-3
** 
*Node Output, nset=TopRP
CF, TF, U
** 
** HISTORY OUTPUT: H-Output-1
** 
*Output, history, frequency=99999
*Energy Output
ALLSE, ALLWK
** 
** HISTORY OUTPUT: H-Output-2
** 
*Node Output, nset=TopRP
CF2, RF1, RF2, TF2, U1, U2
*End Step
